*SPEF "1481-1998"
*DESIGN "cordic"
*DATE "Tue Apr  7 00:37:23 2026"
*VENDOR "Synopsys, Inc."
*PROGRAM "icc2 /home/synopsys_install/icc2/W-2024.09/linux64/nwtn/bin/icc2_exec"
*VERSION "W-2024.09 Aug 25, 2024"
*DESIGN_FLOW "ICC2 SPEF DR"
*DIVIDER /
*DELIMITER :
*BUS_DELIMITER [ ]
*T_UNIT 1 NS
*C_UNIT 1 FF
*R_UNIT 1 OHM
*L_UNIT 1 HENRY

// XY_UNIT 1 UM
// PARASITIC_TECH p1 at 125.000 degree

*NAME_MAP
*1 X[15]
*2 X[14]
*3 X[13]
*4 X[12]
*5 X[11]
*6 X[10]
*7 X[9]
*8 X[8]
*9 X[7]
*10 X[6]
*11 X[5]
*12 X[4]
*13 X[3]
*14 X[2]
*15 X[1]
*16 X[0]
*17 Y[15]
*18 Y[14]
*19 Y[13]
*20 Y[12]
*21 Y[11]
*22 Y[10]
*23 Y[9]
*24 Y[8]
*25 Y[7]
*26 Y[6]
*27 Y[5]
*28 Y[4]
*29 Y[3]
*30 Y[2]
*31 Y[1]
*32 Y[0]
*33 Z[1]
*34 Z[0]
*35 Clock
*36 VDD
*37 VSS
*38 X1_reg[15]
*39 X1_reg[14]
*40 X1_reg[13]
*41 X1_reg[12]
*42 X1_reg[11]
*43 X1_reg[10]
*44 X1_reg[9]
*45 X1_reg[8]
*46 X1_reg[7]
*47 X1_reg[6]
*48 X1_reg[5]
*49 X1_reg[4]
*50 X1_reg[3]
*51 X1_reg[2]
*52 X1_reg[1]
*53 X1_reg[0]
*54 Z1_reg[1]
*55 Z1_reg[0]
*56 Y_reg[14]
*57 Y_reg[13]
*58 Y_reg[12]
*59 Y_reg[11]
*60 Y_reg[10]
*61 Y_reg[9]
*62 Y_reg[8]
*63 Y_reg[7]
*64 Y_reg[6]
*65 Y_reg[5]
*66 Y_reg[4]
*67 Y_reg[3]
*68 Y_reg[2]
*69 Y_reg[1]
*70 Y_reg[0]
*71 Y_reg[15]
*72 HFSBUF_431_0
*73 HFSINV_611_1
*74 copt_h_inst_1417
*75 copt_h_inst_1418
*76 U43
*77 copt_h_inst_1419
*78 U45
*79 U46
*80 U47
*81 U48
*82 U49
*83 U50
*84 U51
*85 U52
*86 U53
*87 U54
*88 U55
*89 U56
*90 U57
*91 U58
*92 U59
*93 U60
*94 U61
*95 copt_h_inst_1423
*96 copt_h_inst_1424
*97 copt_h_inst_1425
*98 copt_h_inst_1426
*99 copt_h_inst_1427
*100 copt_h_inst_1428
*101 copt_h_inst_1429
*102 copt_h_inst_1430
*103 copt_h_inst_1431
*104 copt_h_inst_1432
*105 copt_h_inst_1433
*106 copt_h_inst_1435
*107 copt_h_inst_1436
*108 copt_h_inst_1437
*109 copt_h_inst_1438
*110 copt_h_inst_1439
*111 copt_h_inst_1440
*112 copt_h_inst_1441
*113 copt_h_inst_1442
*114 HFSNET_0
*115 HFSNET_1
*116 copt_net_0
*117 copt_net_1
*118 n23
*119 n24
*120 copt_net_2
*121 n28
*122 X1[15]
*123 X1[14]
*124 X1[13]
*125 X1[12]
*126 X1[11]
*127 X1[10]
*128 X1[9]
*129 X1[8]
*130 X1[7]
*131 X1[6]
*132 X1[5]
*133 X1[4]
*134 X1[3]
*135 X1[2]
*136 X1[1]
*137 X1[0]
*138 Z1[1]
*139 Z1[0]
*140 Y1[14]
*141 Y1[13]
*142 Y1[12]
*143 Y1[11]
*144 Y1[10]
*145 Y1[9]
*146 Y1[8]
*147 Y1[7]
*148 Y1[6]
*149 Y1[5]
*150 Y1[4]
*151 Y1[3]
*152 Y1[2]
*153 Y1[1]
*154 Y1[0]
*155 copt_net_6
*156 copt_net_7
*157 copt_net_8
*158 copt_net_9
*159 copt_net_10
*160 copt_net_11
*161 copt_net_12
*162 copt_net_13
*163 copt_net_14
*164 copt_net_15
*165 copt_net_16
*166 copt_net_18
*167 copt_net_19
*168 copt_net_20
*169 copt_net_21
*170 copt_net_22
*171 copt_net_23
*172 copt_net_24
*173 copt_net_25

*PORTS

*1 I *C 23.848 0.143
*2 I *C 26.584 0.143
*3 I *C 24.608 18.217
*4 I *C 20.656 18.217
*5 I *C 17.464 0.143
*6 I *C 13.512 0.143
*7 I *C 9.560 0.143
*8 I *C 0.143 9.864
*9 I *C 0.143 12.600
*10 I *C 19.737 19.896
*11 I *C 28.408 18.217
*12 I *C 29.016 0.143
*13 I *C 19.737 21.416
*14 I *C 0.143 9.256
*15 I *C 13.208 0.143
*16 I *C 24.304 18.217
*17 O *C 19.737 34.184
*18 O *C 19.737 39.352
*19 O *C 19.737 29.320
*20 O *C 19.737 25.976
*21 O *C 23.240 18.217
*22 O *C 19.737 32.664
*23 O *C 19.737 36.008
*24 O *C 10.928 46.641
*25 O *C 8.496 46.641
*26 O *C 0.143 36.008
*27 O *C 0.143 32.664
*28 O *C 0.143 30.840
*29 O *C 0.143 27.496
*30 O *C 0.143 25.976
*31 O *C 0.143 10.776
*32 O *C 23.088 0.143
*33 I *C 0.143 15.944
*34 I *C 0.143 5.912
*35 I *C 17.464 0.143
*36 I *C 19.896 23.392
*37 I *C 19.896 23.392

*D_NET *114 1.989044 //LENGTH 21.951 LUMPCC 0 DR

*CONN
*I *72:Y O *L 0 *C 11.840 6.064
*I *78:S1 I *L 3.068698 *C 14.576 13.208
*I *112:A I *L 0.753714 *C 13.664 19.288
*I *93:S1 I *L 3.068698 *C 18.832 10.168
*N *114:4 *C 18.832 9.986
*N *114:5 *C 18.832 10.155
*N *114:6 *C 18.819 10.168
*N *114:7 *C 13.665 19.288
*N *114:8 *C 13.816 19.288
*N *114:9 *C 13.816 13.222
*N *114:10 *C 13.830 13.208
*N *114:11 *C 14.562 13.208
*N *114:12 *C 14.576 13.195
*N *114:13 *C 14.576 10.181
*N *114:14 *C 14.576 10.168
*N *114:15 *C 11.854 10.168
*N *114:16 *C 11.840 10.155
*N *114:17 *C 11.840 6.078

*CAP
0 *72:Y 0.001
1 *78:S1 0.001
2 *112:A 0.001
3 *93:S1 0.001
4 *114:4 0.01684699
5 *114:5 0.01066988
6 *114:6 0.1845755
7 *114:7 0.004829753
8 *114:8 0.3172567
9 *114:9 0.3062498
10 *114:10 0.04195733
11 *114:11 0.04195733
12 *114:12 0.1452997
13 *114:13 0.1491046
14 *114:14 0.3074919
15 *114:15 0.1205441
16 *114:16 0.1698464
17 *114:17 0.1684138

*RES
0 *72:Y *114:17 1
1 *114:5 *93:S1 1
2 *114:5 *114:4 0.2825
3 *114:6 *114:5 0.5
4 *114:12 *78:S1 1
5 *114:12 *114:11 0.5
6 *114:13 *114:12 5.380358
7 *114:14 *114:13 0.5
8 *114:14 *114:6 7.575893
9 *114:11 *114:10 1.308929
10 *114:9 *114:8 10.83304
11 *114:10 *114:9 0.5
12 *114:7 *112:A 1
13 *114:16 *114:15 0.5
14 *114:15 *114:14 4.861607
15 *114:17 *114:16 7.280357
16 *114:8 *114:7 0.2696429

*END

*D_NET *1 0.5630395 //LENGTH 7.406 LUMPCC 0 DR

*CONN
*P *1 I *L 0 *C 23.848 0.258
*I *38:D I *L 0.558146 *C 24.122 7.280
*N *1:2 *C 23.863 7.280
*N *1:3 *C 23.848 7.267

*CAP
0 *1 0.2619984
1 *38:D 0.02159672
2 *1:2 0.01952133
3 *1:3 0.259923

*RES
0 *1 *1:3 12.51518
1 *1:2 *38:D 0.5180001
2 *1:3 *1:2 1

*END

*D_NET *2 0.6623867 //LENGTH 10.185 LUMPCC 0 DR

*CONN
*P *2 I *L 0 *C 26.584 0.258
*I *39:D I *L 0.558146 *C 25.824 9.408
*N *2:2 *C 25.824 9.395
*N *2:3 *C 25.824 8.966
*N *2:4 *C 25.838 8.952
*N *2:5 *C 26.571 8.952
*N *2:6 *C 26.584 8.939

*CAP
0 *2 0.2764471
1 *39:D 0.001
2 *2:2 0.02129014
3 *2:3 0.02272282
4 *2:4 0.03342529
5 *2:5 0.03342583
6 *2:6 0.2740754

*RES
0 *2 *2:6 15.50089
1 *2:2 *39:D 1
2 *2:3 *2:2 0.7660714
3 *2:4 *2:3 0.5
4 *2:5 *2:4 1.308929
5 *2:6 *2:5 0.5

*END

*D_NET *3 1.359905 //LENGTH 14.122 LUMPCC 0 DR

*CONN
*P *3 I *L 0 *C 24.608 18.087
*I *40:D I *L 0.558146 *C 29.776 9.408
*N *3:2 *C 29.776 9.421
*N *3:3 *C 29.776 10.763
*N *3:4 *C 29.763 10.776
*N *3:5 *C 24.622 10.776
*N *3:6 *C 24.608 10.790

*CAP
0 *3 0.3595791
1 *40:D 0.001
2 *3:2 0.06215142
3 *3:3 0.0635841
4 *3:4 0.2581917
5 *3:5 0.2581917
6 *3:6 0.3572069

*RES
0 *3 *3:6 13.03125
1 *3:2 *40:D 1
2 *3:3 *3:2 2.394643
3 *3:4 *3:3 0.5
4 *3:6 *3:5 0.5
5 *3:5 *3:4 9.180358

*END

*D_NET *4 0.9925026 //LENGTH 14.289 LUMPCC 0 DR

*CONN
*P *4 I *L 0 *C 20.656 18.102
*I *41:D I *L 0.558146 *C 29.320 12.752
*N *4:2 *C 29.320 12.766
*N *4:3 *C 29.320 14.107
*N *4:4 *C 29.306 14.120
*N *4:5 *C 20.669 14.120
*N *4:6 *C 20.656 14.134

*CAP
0 *4 0.1466389
1 *41:D 0.001
2 *4:2 0.05121003
3 *4:3 0.05264271
4 *4:4 0.2983721
5 *4:5 0.2983721
6 *4:6 0.1442666

*RES
0 *4 *4:6 7.086607
1 *4:2 *41:D 1
2 *4:3 *4:2 2.394643
3 *4:4 *4:3 0.5
4 *4:6 *4:5 0.5
5 *4:5 *4:4 15.42321

*END

*D_NET *5 0.4876864 //LENGTH 6.993 LUMPCC 0 DR

*CONN
*P *5 I *L 0 *C 17.464 0.258
*I *42:D I *L 0.558146 *C 18.376 6.064
*N *5:2 *C 18.376 6.051
*N *5:3 *C 18.376 4.405
*N *5:4 *C 18.363 4.392
*N *5:5 *C 17.477 4.392
*N *5:6 *C 17.464 4.378

*CAP
0 *5 0.1433041
1 *42:D 0.001
2 *5:2 0.06965252
3 *5:3 0.0710852
4 *5:4 0.03085639
5 *5:5 0.03085639
6 *5:6 0.1409318

*RES
0 *5 *5:6 7.358036
1 *5:2 *42:D 1
2 *5:3 *5:2 2.9375
3 *5:4 *5:3 0.5
4 *5:6 *5:5 0.5
5 *5:5 *5:4 1.580357

*END

*D_NET *6 0.6845228 //LENGTH 10.033 LUMPCC 0 DR

*CONN
*P *6 I *L 0 *C 13.512 0.258
*I *43:D I *L 0.558146 *C 10.776 7.280
*N *6:2 *C 10.776 7.267
*N *6:3 *C 10.776 5.926
*N *6:4 *C 10.790 5.912
*N *6:5 *C 13.498 5.912
*N *6:6 *C 13.512 5.899

*CAP
0 *6 0.1748557
1 *43:D 0.001
2 *6:2 0.06086648
3 *6:3 0.06229916
4 *6:4 0.1065085
5 *6:5 0.106509
6 *6:6 0.172484

*RES
0 *6 *6:6 10.07232
1 *6:2 *43:D 1
2 *6:3 *6:2 2.394643
3 *6:4 *6:3 0.5
4 *6:5 *6:4 4.8375
5 *6:6 *6:5 0.5

*END

*D_NET *7 0.6679489 //LENGTH 10.494 LUMPCC 0 DR

*CONN
*P *7 I *L 0 *C 9.560 0.258
*I *44:D I *L 0.558146 *C 10.624 9.408
*N *7:2 *C 10.624 9.396
*N *7:3 *C 10.624 9.256
*N *7:4 *C 10.611 9.256
*N *7:5 *C 9.574 9.256
*N *7:6 *C 9.560 9.242

*CAP
0 *7 0.2824502
1 *44:D 0.001
2 *7:2 0.008124892
3 *7:3 0.00955757
4 *7:4 0.04336855
5 *7:5 0.0433691
6 *7:6 0.2800786

*RES
0 *7 *7:6 16.04375
1 *7:2 *44:D 1
2 *7:3 *7:2 0.2325
3 *7:4 *7:3 0.5
4 *7:5 *7:4 1.851786
5 *7:6 *7:5 0.5

*END

*D_NET *8 0.4384514 //LENGTH 6.275 LUMPCC 0 DR

*CONN
*P *8 I *L 0 *C 0.258 9.864
*I *45:D I *L 0.558146 *C 5.608 10.624
*N *8:2 *C 5.608 10.611
*N *8:3 *C 5.608 9.878
*N *8:4 *C 5.595 9.864

*CAP
0 *8 0.1889443
1 *45:D 0.001
2 *8:2 0.03025123
3 *8:3 0.03168391
4 *8:4 0.186572

*RES
0 *8 *8:4 9.529465
1 *8:2 *45:D 1
2 *8:3 *8:2 1.308929
3 *8:4 *8:3 0.5

*END

*D_NET *9 0.3213366 //LENGTH 5.368 LUMPCC 0 DR

*CONN
*P *9 I *L 0 *C 0.258 12.600
*I *46:D I *L 0.558146 *C 5.304 12.752
*N *9:2 *C 5.304 12.740
*N *9:3 *C 5.304 12.600
*N *9:4 *C 5.291 12.600

*CAP
0 *9 0.15322
1 *46:D 0.001
2 *9:2 0.007418094
3 *9:3 0.008850773
4 *9:4 0.1508477

*RES
0 *9 *9:4 8.986609
1 *9:2 *46:D 1
2 *9:3 *9:2 0.2325
3 *9:4 *9:3 0.5

*END

*D_NET *10 1.547737 //LENGTH 17.523 LUMPCC 0 DR

*CONN
*P *10 I *L 0 *C 19.622 19.896
*I *47:D I *L 0.558146 *C 6.368 24.000
*N *10:2 *C 6.368 23.986
*N *10:3 *C 6.368 19.910
*N *10:4 *C 6.381 19.896

*CAP
0 *10 0.5263756
1 *47:D 0.001
2 *10:2 0.2474627
3 *10:3 0.2488954
4 *10:4 0.5240034

*RES
0 *10 *10:4 23.64375
1 *10:2 *47:D 1
2 *10:3 *10:2 7.280358
3 *10:4 *10:3 0.5

*END

*D_NET *11 1.214463 //LENGTH 18.587 LUMPCC 0 DR

*CONN
*P *11 I *L 0 *C 28.408 18.102
*I *48:D I *L 0.558146 *C 11.220 17.312
*N *11:2 *C 11.093 17.312
*N *11:3 *C 11.080 17.326
*N *11:4 *C 11.080 17.755
*N *11:5 *C 11.094 17.768
*N *11:6 *C 28.395 17.768
*N *11:7 *C 28.408 17.782

*CAP
0 *11 0.0152029
1 *48:D 0.01289842
2 *11:2 0.01082303
3 *11:3 0.03888911
4 *11:4 0.03859229
5 *11:5 0.5426134
6 *11:6 0.5426134
7 *11:7 0.01283068

*RES
0 *11 *11:7 0.5723215
1 *11:2 *48:D 0.2116667
2 *11:3 *11:2 1
3 *11:4 *11:3 0.7660715
4 *11:5 *11:4 0.5
5 *11:7 *11:6 0.5
6 *11:6 *11:5 30.89465

*END

*D_NET *12 0.6523769 //LENGTH 8.518 LUMPCC 0 DR

*CONN
*P *12 I *L 0 *C 29.016 0.258
*I *49:D I *L 0.558146 *C 28.104 7.280
*N *12:2 *C 28.104 7.280
*N *12:3 *C 28.104 7.420
*N *12:4 *C 28.117 7.432
*N *12:5 *C 29.003 7.432
*N *12:6 *C 29.016 7.419

*CAP
0 *12 0.2799791
1 *49:D 0.001
2 *12:2 0.007851118
3 *12:3 0.009283796
4 *12:4 0.03832799
5 *12:5 0.03832799
6 *12:6 0.2776069

*RES
0 *12 *12:6 12.78661
1 *12:2 *49:D 1
2 *12:3 *12:2 0.2325
3 *12:4 *12:3 0.5
4 *12:6 *12:5 0.5
5 *12:5 *12:4 1.580357

*END

*D_NET *13 0.6171364 //LENGTH 9.844 LUMPCC 0 DR

*CONN
*P *13 I *L 0 *C 19.622 21.416
*I *50:D I *L 0.558146 *C 11.232 20.656
*N *13:2 *C 11.232 20.643
*N *13:3 *C 11.232 20.504
*N *13:4 *C 11.245 20.504
*N *13:5 *C 12.283 20.504
*N *13:6 *C 12.296 20.518
*N *13:7 *C 12.296 21.402
*N *13:8 *C 12.309 21.416

*CAP
0 *13 0.2178927
1 *50:D 0.001
2 *13:2 0.01172881
3 *13:3 0.01316149
4 *13:4 0.04527152
5 *13:5 0.04527207
6 *13:6 0.03364387
7 *13:7 0.03364439
8 *13:8 0.2155215

*RES
0 *13 *13:8 13.05804
1 *13:2 *50:D 1
2 *13:3 *13:2 0.2325
3 *13:4 *13:3 0.5
4 *13:5 *13:4 1.851786
5 *13:6 *13:5 0.5
6 *13:7 *13:6 1.580357
7 *13:8 *13:7 0.5

*END

*D_NET *14 0.4430275 //LENGTH 6.584 LUMPCC 0 DR

*CONN
*P *14 I *L 0 *C 0.258 9.256
*I *51:D I *L 0.558146 *C 6.520 9.408
*N *14:2 *C 6.520 9.396
*N *14:3 *C 6.520 9.256
*N *14:4 *C 6.506 9.256

*CAP
0 *14 0.210885
1 *51:D 0.001
2 *14:2 0.01059855
3 *14:3 0.01203123
4 *14:4 0.2085128

*RES
0 *14 *14:4 11.15804
1 *14:2 *51:D 1
2 *14:3 *14:2 0.2325
3 *14:4 *14:3 0.5

*END

*D_NET *15 0.5143431 //LENGTH 7.297 LUMPCC 0 DR

*CONN
*P *15 I *L 0 *C 13.208 0.258
*I *52:D I *L 0.558146 *C 14.424 6.064
*N *15:2 *C 14.424 6.051
*N *15:3 *C 14.424 4.405
*N *15:4 *C 14.411 4.392
*N *15:5 *C 13.222 4.392
*N *15:6 *C 13.208 4.378

*CAP
0 *15 0.1450039
1 *52:D 0.001
2 *15:2 0.06888751
3 *15:3 0.07032019
4 *15:4 0.04324995
5 *15:5 0.04324995
6 *15:6 0.1426317

*RES
0 *15 *15:6 7.358036
1 *15:2 *52:D 1
2 *15:3 *15:2 2.9375
3 *15:4 *15:3 0.5
4 *15:6 *15:5 0.5
5 *15:5 *15:4 2.123214

*END

*D_NET *16 1.156656 //LENGTH 12.168 LUMPCC 0 DR

*CONN
*P *16 I *L 0 *C 24.304 18.102
*I *53:D I *L 0.558146 *C 21.860 9.408
*N *16:2 *C 21.733 9.408
*N *16:3 *C 21.720 9.396
*N *16:4 *C 21.720 9.256
*N *16:5 *C 21.733 9.256
*N *16:6 *C 24.139 9.256
*N *16:7 *C 24.152 9.270
*N *16:8 *C 24.152 10.776
*N *16:9 *C 24.304 10.776

*CAP
0 *16 0.3263259
1 *53:D 0.01436867
2 *16:2 0.01229328
3 *16:3 0.01569803
4 *16:4 0.01540121
5 *16:5 0.1225019
6 *16:6 0.1225019
7 *16:7 0.09044964
8 *16:8 0.1018058
9 *16:9 0.3353099

*RES
0 *16 *16:9 13.08214
1 *16:2 *53:D 0.2116667
2 *16:3 *16:2 1
3 *16:4 *16:3 0.2325
4 *16:5 *16:4 0.5
5 *16:7 *16:6 0.5
6 *16:6 *16:5 4.294643
7 *16:8 *16:7 2.690179
8 *16:9 *16:8 0.2714286

*END

*D_NET *17 0.5843591 //LENGTH 7.628 LUMPCC 0 DR

*CONN
*I *71:Q O *L 0 *C 14.454 32.370
*P *17 O *L 0 *C 19.622 34.184
*N *17:2 *C 14.590 34.184
*N *17:3 *C 14.576 34.171
*N *17:4 *C 14.576 32.968
*N *17:5 *C 14.728 32.968
*N *17:6 *C 14.728 32.373
*N *17:7 *C 14.713 32.360

*CAP
0 *71:Q 0.01767489
1 *17 0.1556267
2 *17:2 0.1532545
3 *17:3 0.07501999
4 *17:4 0.08487507
5 *17:5 0.04593333
6 *17:6 0.03637507
7 *17:7 0.01559949

*RES
0 *71:Q *17:7 0.5180001
1 *17:7 *17:6 1
2 *17:6 *17:5 1.061607
3 *17:3 *17:2 0.5
4 *17:2 *17 8.986608
5 *17:4 *17:3 2.147322
6 *17:5 *17:4 0.2714286

*END

*D_NET *18 0.5342177 //LENGTH 7.795 LUMPCC 0 DR

*CONN
*I *56:Q O *L 0 *C 13.512 37.832
*P *18 O *L 0 *C 19.622 39.352
*N *18:2 *C 13.526 39.352
*N *18:3 *C 13.512 39.339
*N *18:4 *C 13.512 37.846

*CAP
0 *56:Q 0.001
1 *18 0.1885818
2 *18:2 0.1862096
3 *18:3 0.07992946
4 *18:4 0.07849678

*RES
0 *56:Q *18:4 1
1 *18:4 *18:3 2.666071
2 *18:3 *18:2 0.5
3 *18:2 *18 10.88661

*END

*D_NET *19 0.4736494 //LENGTH 6.731 LUMPCC 0 DR

*CONN
*I *57:Q O *L 0 *C 14.576 27.800
*P *19 O *L 0 *C 19.622 29.320
*N *19:2 *C 14.590 29.320
*N *19:3 *C 14.576 29.306
*N *19:4 *C 14.576 27.814

*CAP
0 *57:Q 0.001
1 *19 0.1501603
2 *19:2 0.1477881
3 *19:3 0.08806685
4 *19:4 0.08663417

*RES
0 *57:Q *19:4 1
1 *19:4 *19:3 2.666071
2 *19:3 *19:2 0.5
3 *19:2 *19 8.986608

*END

*D_NET *20 0.4370274 //LENGTH 6.731 LUMPCC 0 DR

*CONN
*I *58:Q O *L 0 *C 14.576 24.456
*P *20 O *L 0 *C 19.622 25.976
*N *20:2 *C 14.590 25.976
*N *20:3 *C 14.576 25.963
*N *20:4 *C 14.576 24.470

*CAP
0 *58:Q 0.001
1 *20 0.1497612
2 *20:2 0.1473889
3 *20:3 0.07015503
4 *20:4 0.06872235

*RES
0 *58:Q *20:4 1
1 *20:4 *20:3 2.666071
2 *20:3 *20:2 0.5
3 *20:2 *20 8.986608

*END

*D_NET *21 0.8796437 //LENGTH 11.401 LUMPCC 0 DR

*CONN
*I *59:Q O *L 0 *C 28.560 12.296
*P *21 O *L 0 *C 23.240 18.102
*N *21:2 *C 23.240 13.526
*N *21:3 *C 23.254 13.512
*N *21:4 *C 28.547 13.512
*N *21:5 *C 28.560 13.498
*N *21:6 *C 28.560 12.309

*CAP
0 *59:Q 0.001
1 *21 0.1665879
2 *21:2 0.1642157
3 *21:3 0.2226862
4 *21:4 0.2226862
5 *21:5 0.0519502
6 *21:6 0.05051752

*RES
0 *59:Q *21:6 1
1 *21:6 *21:5 2.123214
2 *21:5 *21:4 0.5
3 *21:4 *21:3 9.451786
4 *21:2 *21 8.172322
5 *21:3 *21:2 0.5

*END

*D_NET *22 0.5050074 //LENGTH 6.731 LUMPCC 0 DR

*CONN
*I *60:Q O *L 0 *C 14.576 31.144
*P *22 O *L 0 *C 19.622 32.664
*N *22:2 *C 14.590 32.664
*N *22:3 *C 14.576 32.651
*N *22:4 *C 14.576 31.158

*CAP
0 *60:Q 0.001
1 *22 0.1558682
2 *22:2 0.1534959
3 *22:3 0.09803797
4 *22:4 0.09660529

*RES
0 *60:Q *22:4 1
1 *22:4 *22:3 2.666071
2 *22:3 *22:2 0.5
3 *22:2 *22 8.986608

*END

*D_NET *23 0.409808 //LENGTH 6.402 LUMPCC 0 DR

*CONN
*I *61:Q O *L 0 *C 13.664 35.704
*P *23 O *L 0 *C 19.622 36.008
*N *23:2 *C 13.678 36.008
*N *23:3 *C 13.664 35.995
*N *23:4 *C 13.664 35.705

*CAP
0 *61:Q 0.001
1 *23 0.1832614
2 *23:2 0.1808892
3 *23:3 0.023045
4 *23:4 0.02161232

*RES
0 *61:Q *23:4 1
1 *23:4 *23:3 0.5169643
2 *23:3 *23:2 0.5
3 *23:2 *23 10.61518

*END

*D_NET *24 0.5653084 //LENGTH 8.341 LUMPCC 0 DR

*CONN
*I *62:Q O *L 0 *C 13.512 41.176
*P *24 O *L 0 *C 10.928 46.526
*N *24:2 *C 13.512 40.994
*N *24:3 *C 10.928 41.190
*N *24:4 *C 10.942 41.176
*N *24:5 *C 13.498 41.176
*N *24:6 *C 13.512 41.163

*CAP
0 *62:Q 0.001
1 *24 0.1890482
2 *24:2 0.01175505
3 *24:3 0.186676
4 *24:4 0.08562559
5 *24:5 0.08562559
6 *24:6 0.005577937

*RES
0 *62:Q *24:6 1
1 *24:6 *24:5 0.5
2 *24:6 *24:2 0.2825
3 *24:5 *24:4 4.566072
4 *24:3 *24 9.529465
5 *24:4 *24:3 0.5

*END

*D_NET *25 0.7279561 //LENGTH 9.709 LUMPCC 0 DR

*CONN
*I *63:Q O *L 0 *C 9.104 37.832
*P *25 O *L 0 *C 8.496 46.526
*N *25:2 *C 9.104 37.650
*N *25:3 *C 8.496 37.846
*N *25:4 *C 8.510 37.832
*N *25:5 *C 9.091 37.832
*N *25:6 *C 9.104 37.820

*CAP
0 *63:Q 0.001
1 *25 0.3328151
2 *25:2 0.01328169
3 *25:3 0.3304429
4 *25:4 0.02165584
5 *25:5 0.02165584
6 *25:6 0.007104576

*RES
0 *63:Q *25:6 1
1 *25:6 *25:5 0.5
2 *25:6 *25:2 0.2825
3 *25:5 *25:4 1.0375
4 *25:3 *25 15.50089
5 *25:4 *25:3 0.5

*END

*D_NET *26 0.6203219 //LENGTH 9.163 LUMPCC 0 DR

*CONN
*I *64:Q O *L 0 *C 8.952 35.704
*P *26 O *L 0 *C 0.258 36.008
*N *26:2 *C 8.939 36.008
*N *26:3 *C 8.952 35.995
*N *26:4 *C 8.952 35.718

*CAP
0 *64:Q 0.001
1 *26 0.2888477
2 *26:2 0.2864755
3 *26:3 0.02271568
4 *26:4 0.021283

*RES
0 *64:Q *26:4 1
1 *26:4 *26:3 0.4946429
2 *26:3 *26:2 0.5
3 *26:2 *26 15.50089

*END

*D_NET *27 0.8036683 //LENGTH 10.379 LUMPCC 0 DR

*CONN
*I *65:Q O *L 0 *C 8.648 34.488
*P *27 O *L 0 *C 0.258 32.664
*N *27:2 *C 8.635 32.664
*N *27:3 *C 8.648 32.678
*N *27:4 *C 8.648 34.474

*CAP
0 *65:Q 0.001
1 *27 0.2890275
2 *27:2 0.2866552
3 *27:3 0.1142092
4 *27:4 0.1127765

*RES
0 *65:Q *27:4 1
1 *27:4 *27:3 3.208929
2 *27:3 *27:2 0.5
3 *27:2 *27 14.95804

*END

*D_NET *28 0.6101375 //LENGTH 8.859 LUMPCC 0 DR

*CONN
*I *66:Q O *L 0 *C 8.648 31.144
*P *28 O *L 0 *C 0.258 30.840
*N *28:2 *C 8.635 30.840
*N *28:3 *C 8.648 30.854
*N *28:4 *C 8.648 31.131

*CAP
0 *66:Q 0.001
1 *28 0.2764508
2 *28:2 0.2740786
3 *28:3 0.0300204
4 *28:4 0.02858772

*RES
0 *66:Q *28:4 1
1 *28:4 *28:3 0.4946429
2 *28:3 *28:2 0.5
3 *28:2 *28 14.95804

*END

*D_NET *29 0.828751 //LENGTH 10.075 LUMPCC 0 DR

*CONN
*I *67:Q O *L 0 *C 8.648 29.016
*P *29 O *L 0 *C 0.258 27.496
*N *29:2 *C 8.635 27.496
*N *29:3 *C 8.648 27.510
*N *29:4 *C 8.648 29.003

*CAP
0 *67:Q 0.001
1 *29 0.2885109
2 *29:2 0.2861387
3 *29:3 0.127267
4 *29:4 0.1258343

*RES
0 *67:Q *29:4 1
1 *29:4 *29:3 2.666071
2 *29:3 *29:2 0.5
3 *29:2 *29 14.95804

*END

*D_NET *30 0.6410813 //LENGTH 8.859 LUMPCC 0 DR

*CONN
*I *68:Q O *L 0 *C 8.648 25.672
*P *30 O *L 0 *C 0.258 25.976
*N *30:2 *C 8.635 25.976
*N *30:3 *C 8.648 25.963
*N *30:4 *C 8.648 25.686

*CAP
0 *68:Q 0.001
1 *30 0.2912869
2 *30:2 0.2889146
3 *30:3 0.03065623
4 *30:4 0.02922355

*RES
0 *68:Q *30:4 1
1 *30:4 *30:3 0.4946429
2 *30:3 *30:2 0.5
3 *30:2 *30 14.95804

*END

*D_NET *31 1.473753 //LENGTH 20.003 LUMPCC 0 DR

*CONN
*I *69:Q O *L 0 *C 17.920 8.952
*P *31 O *L 0 *C 0.258 10.776
*N *31:2 *C 17.920 8.770
*N *31:3 *C 16.995 10.776
*N *31:4 *C 17.008 10.763
*N *31:5 *C 17.008 8.966
*N *31:6 *C 17.021 8.952
*N *31:7 *C 17.907 8.952
*N *31:8 *C 17.920 8.940

*CAP
0 *69:Q 0.001
1 *31 0.6110601
2 *31:2 0.01219775
3 *31:3 0.6086879
4 *31:4 0.08357607
5 *31:5 0.08357607
6 *31:6 0.03381751
7 *31:7 0.03381751
8 *31:8 0.006020634

*RES
0 *69:Q *31:8 1
1 *31:8 *31:7 0.5
2 *31:8 *31:2 0.2825
3 *31:7 *31:6 1.580357
4 *31:5 *31:4 3.208929
5 *31:6 *31:5 0.5
6 *31:4 *31:3 0.5
7 *31:3 *31 29.88661

*END

*D_NET *32 0.5870319 //LENGTH 8.209 LUMPCC 0 DR

*CONN
*I *70:Q O *L 0 *C 25.672 5.608
*P *32 O *L 0 *C 23.088 0.258
*N *32:2 *C 23.088 5.291
*N *32:3 *C 23.102 5.304
*N *32:4 *C 25.659 5.304
*N *32:5 *C 25.672 5.317
*N *32:6 *C 25.672 5.595

*CAP
0 *70:Q 0.001
1 *32 0.182209
2 *32:2 0.1798367
3 *32:3 0.09935588
4 *32:4 0.09935588
5 *32:5 0.01335358
6 *32:6 0.0119209

*RES
0 *70:Q *32:6 1
1 *32:6 *32:5 0.4946429
2 *32:5 *32:4 0.5
3 *32:4 *32:3 4.566072
4 *32:2 *32 8.986609
5 *32:3 *32:2 0.5

*END

*D_NET *33 0.3262284 //LENGTH 5.368 LUMPCC 0 DR

*CONN
*P *33 I *L 0 *C 0.258 15.944
*I *54:D I *L 0.558146 *C 5.304 16.096
*N *33:2 *C 5.304 16.084
*N *33:3 *C 5.304 15.944
*N *33:4 *C 5.291 15.944

*CAP
0 *33 0.1512771
1 *54:D 0.001
2 *33:2 0.01180686
3 *33:3 0.01323954
4 *33:4 0.1489049

*RES
0 *33 *33:4 8.986609
1 *33:2 *54:D 1
2 *33:3 *33:2 0.2325
3 *33:4 *33:3 0.5

*END

*D_NET *34 0.4128892 //LENGTH 6.888 LUMPCC 0 DR

*CONN
*P *34 I *L 0 *C 0.258 5.912
*I *55:D I *L 0.557764 *C 6.824 6.064
*N *34:2 *C 6.824 6.051
*N *34:3 *C 6.824 5.912
*N *34:4 *C 6.811 5.912

*CAP
0 *34 0.1991716
1 *55:D 0.001
2 *34:2 0.007242792
3 *34:3 0.00867547
4 *34:4 0.1967993

*RES
0 *34 *34:4 11.70089
1 *34:2 *55:D 1
2 *34:3 *34:2 0.2325
3 *34:4 *34:3 0.5

*END

*D_NET *35 9.967423 //LENGTH 132.763 LUMPCC 0 DR

*CONN
*P *35 I *L 0 *C 17.464 0.258
*I *52:CLK I *L 0.714381 *C 14.728 5.152
*I *69:CLK I *L 0.714381 *C 14.840 8.496
*I *43:CLK I *L 0.714381 *C 11.080 8.192
*I *44:CLK I *L 0.714381 *C 10.928 8.496
*I *46:CLK I *L 0.714381 *C 5.715 11.840
*I *54:CLK I *L 0.714381 *C 5.715 15.184
*I *45:CLK I *L 0.714381 *C 5.912 11.536
*I *51:CLK I *L 0.714381 *C 6.824 8.496
*I *48:CLK I *L 0.714381 *C 11.536 18.224
*I *50:CLK I *L 0.714381 *C 11.536 21.568
*I *67:CLK I *L 0.714381 *C 5.715 28.560
*I *66:CLK I *L 0.714381 *C 5.715 31.600
*I *65:CLK I *L 0.714381 *C 5.715 34.944
*I *64:CLK I *L 0.714381 *C 5.912 35.248
*I *63:CLK I *L 0.714381 *C 6.024 38.288
*I *68:CLK I *L 0.714381 *C 5.715 25.216
*I *47:CLK I *L 0.714381 *C 6.672 24.912
*I *58:CLK I *L 0.714381 *C 11.536 24.912
*I *57:CLK I *L 0.714381 *C 11.536 28.256
*I *60:CLK I *L 0.714381 *C 11.536 31.600
*I *71:CLK I *L 0.717204 *C 11.384 31.904
*I *61:CLK I *L 0.714381 *C 10.731 35.248
*I *56:CLK I *L 0.714381 *C 10.472 38.288
*I *62:CLK I *L 0.714381 *C 10.472 41.632
*I *55:CLK I *L 0.71401 *C 7.128 5.152
*I *42:CLK I *L 0.714381 *C 18.680 5.152
*I *38:CLK I *L 0.714381 *C 24.456 8.192
*I *39:CLK I *L 0.714381 *C 26.128 8.496
*I *59:CLK I *L 0.714381 *C 25.520 11.840
*I *49:CLK I *L 0.714381 *C 28.408 8.192
*I *41:CLK I *L 0.714381 *C 29.624 11.840
*I *40:CLK I *L 0.714381 *C 30.080 8.496
*I *53:CLK I *L 0.714381 *C 22.176 8.496
*I *70:CLK I *L 0.714381 *C 22.632 5.152
*N *35:35 *C 22.632 5.152
*N *35:36 *C 22.632 5.292
*N *35:37 *C 22.176 8.484
*N *35:38 *C 22.176 8.344
*N *35:39 *C 22.190 8.344
*N *35:40 *C 22.632 8.344
*N *35:41 *C 30.080 8.496
*N *35:42 *C 30.080 8.636
*N *35:43 *C 30.093 8.648
*N *35:44 *C 29.624 11.840
*N *35:45 *C 29.624 11.979
*N *35:46 *C 29.638 11.992
*N *35:47 *C 30.219 11.992
*N *35:48 *C 30.232 11.979
*N *35:49 *C 30.232 8.662
*N *35:50 *C 30.232 8.647
*N *35:51 *C 30.232 8.040
*N *35:52 *C 28.408 8.192
*N *35:53 *C 28.408 8.332
*N *35:54 *C 28.422 8.344
*N *35:55 *C 29.915 8.344
*N *35:56 *C 29.928 8.331
*N *35:57 *C 29.928 8.193
*N *35:58 *C 29.928 8.040
*N *35:59 *C 29.928 8.040
*N *35:60 *C 25.520 11.841
*N *35:61 *C 25.520 11.979
*N *35:62 *C 25.534 11.992
*N *35:63 *C 25.963 11.992
*N *35:64 *C 25.976 11.979
*N *35:65 *C 26.128 8.496
*N *35:66 *C 26.128 8.636
*N *35:67 *C 26.116 8.648
*N *35:68 *C 25.976 8.648
*N *35:69 *C 25.976 8.648
*N *35:70 *C 25.976 8.053
*N *35:71 *C 25.976 8.040
*N *35:72 *C 24.456 8.180
*N *35:73 *C 24.456 8.040
*N *35:74 *C 24.456 8.040
*N *35:75 *C 22.632 8.040
*N *35:76 *C 22.632 8.027
*N *35:77 *C 22.632 5.317
*N *35:78 *C 22.619 5.304
*N *35:79 *C 18.680 5.152
*N *35:80 *C 18.680 5.292
*N *35:81 *C 18.680 5.304
*N *35:82 *C 7.128 5.152
*N *35:83 *C 7.128 5.292
*N *35:84 *C 7.142 5.304
*N *35:85 *C 10.472 41.631
*N *35:86 *C 10.472 40.582
*N *35:87 *C 10.486 40.568
*N *35:88 *C 10.763 40.568
*N *35:89 *C 10.776 40.555
*N *35:90 *C 10.472 38.287
*N *35:91 *C 10.472 38.150
*N *35:92 *C 10.486 38.136
*N *35:93 *C 10.763 38.136
*N *35:94 *C 10.776 38.136
*N *35:95 *C 10.594 35.400
*N *35:96 *C 10.776 35.248
*N *35:97 *C 10.776 35.248
*N *35:98 *C 10.776 35.388
*N *35:99 *C 10.764 35.400
*N *35:100 *C 10.776 35.400
*N *35:101 *C 11.080 35.400
*N *35:102 *C 11.080 31.448
*N *35:103 *C 11.535 31.600
*N *35:104 *C 11.384 31.891
*N *35:105 *C 11.384 31.600
*N *35:106 *C 11.536 31.588
*N *35:107 *C 11.536 31.448
*N *35:108 *C 11.524 31.448
*N *35:109 *C 11.384 31.448
*N *35:110 *C 11.384 31.434
*N *35:111 *C 11.536 28.244
*N *35:112 *C 11.536 28.104
*N *35:113 *C 11.524 28.104
*N *35:114 *C 11.384 28.104
*N *35:115 *C 11.384 28.104
*N *35:116 *C 11.536 24.899
*N *35:117 *C 11.536 24.760
*N *35:118 *C 11.524 24.760
*N *35:119 *C 6.672 24.899
*N *35:120 *C 6.672 24.760
*N *35:121 *C 6.684 24.760
*N *35:122 *C 5.760 25.216
*N *35:123 *C 5.760 25.230
*N *35:124 *C 5.760 25.659
*N *35:125 *C 5.772 25.672
*N *35:126 *C 5.730 37.224
*N *35:127 *C 5.925 38.288
*N *35:128 *C 5.912 38.275
*N *35:129 *C 5.912 37.238
*N *35:130 *C 5.900 37.224
*N *35:131 *C 5.912 37.211
*N *35:132 *C 5.730 35.400
*N *35:133 *C 5.912 35.248
*N *35:134 *C 5.912 35.388
*N *35:135 *C 5.900 35.400
*N *35:136 *C 5.912 35.400
*N *35:137 *C 5.760 34.944
*N *35:138 *C 5.760 34.931
*N *35:139 *C 5.760 34.792
*N *35:140 *C 5.760 34.792
*N *35:141 *C 5.900 34.792
*N *35:142 *C 5.912 34.792
*N *35:143 *C 5.760 31.600
*N *35:144 *C 5.760 31.588
*N *35:145 *C 5.760 31.448
*N *35:146 *C 5.760 31.448
*N *35:147 *C 5.900 31.448
*N *35:148 *C 5.912 31.448
*N *35:149 *C 5.760 28.560
*N *35:150 *C 5.760 28.560
*N *35:151 *C 5.760 28.700
*N *35:152 *C 5.760 28.712
*N *35:153 *C 5.900 28.712
*N *35:154 *C 5.912 28.712
*N *35:155 *C 5.912 25.686
*N *35:156 *C 5.926 25.672
*N *35:157 *C 6.811 25.672
*N *35:158 *C 6.824 25.659
*N *35:159 *C 6.824 24.774
*N *35:160 *C 6.838 24.760
*N *35:161 *C 11.397 24.760
*N *35:162 *C 11.384 24.760
*N *35:163 *C 11.536 21.556
*N *35:164 *C 11.536 21.416
*N *35:165 *C 11.524 21.416
*N *35:166 *C 11.384 21.416
*N *35:167 *C 11.384 21.416
*N *35:168 *C 11.536 18.212
*N *35:169 *C 11.536 18.072
*N *35:170 *C 11.524 18.072
*N *35:171 *C 11.384 18.072
*N *35:172 *C 11.384 18.085
*N *35:173 *C 11.080 18.072
*N *35:174 *C 6.824 8.508
*N *35:175 *C 6.823 8.648
*N *35:176 *C 5.912 11.524
*N *35:177 *C 5.912 11.384
*N *35:178 *C 5.760 15.184
*N *35:179 *C 5.760 15.184
*N *35:180 *C 5.760 15.324
*N *35:181 *C 5.760 15.336
*N *35:182 *C 5.900 15.336
*N *35:183 *C 5.912 15.323
*N *35:184 *C 5.760 11.840
*N *35:185 *C 5.760 11.840
*N *35:186 *C 5.760 11.979
*N *35:187 *C 5.760 11.992
*N *35:188 *C 5.900 11.992
*N *35:189 *C 5.912 11.992
*N *35:190 *C 5.912 11.398
*N *35:191 *C 5.926 11.384
*N *35:192 *C 6.659 11.384
*N *35:193 *C 6.672 11.370
*N *35:194 *C 6.672 8.648
*N *35:195 *C 6.824 8.636
*N *35:196 *C 6.838 8.648
*N *35:197 *C 10.928 8.496
*N *35:198 *C 10.928 8.636
*N *35:199 *C 10.941 8.648
*N *35:200 *C 11.068 8.648
*N *35:201 *C 11.080 8.648
*N *35:202 *C 10.898 8.040
*N *35:203 *C 11.080 8.180
*N *35:204 *C 11.080 8.040
*N *35:205 *C 11.068 8.040
*N *35:206 *C 11.080 8.040
*N *35:207 *C 11.080 5.317
*N *35:208 *C 11.080 5.304
*N *35:209 *C 14.546 8.648
*N *35:210 *C 14.741 8.496
*N *35:211 *C 14.728 8.496
*N *35:212 *C 14.728 8.636
*N *35:213 *C 14.716 8.648
*N *35:214 *C 14.728 8.635
*N *35:215 *C 14.728 5.317
*N *35:216 *C 14.728 5.152
*N *35:217 *C 14.728 5.292
*N *35:218 *C 14.728 5.304
*N *35:219 *C 17.464 5.304
*N *35:220 *C 17.464 5.291

*CAP
0 *35 0.1552306
1 *52:CLK 0.001
2 *69:CLK 0.01448472
3 *43:CLK 0.001
4 *44:CLK 0.001
5 *46:CLK 0.01086886
6 *54:CLK 0.01021588
7 *45:CLK 0.001
8 *51:CLK 0.001
9 *48:CLK 0.001
10 *50:CLK 0.001
11 *67:CLK 0.01096688
12 *66:CLK 0.01027
13 *65:CLK 0.01084433
14 *64:CLK 0.001
15 *63:CLK 0.01389666
16 *68:CLK 0.01046841
17 *47:CLK 0.001
18 *58:CLK 0.001
19 *57:CLK 0.001
20 *60:CLK 0.001
21 *71:CLK 0.001
22 *61:CLK 0.01005414
23 *56:CLK 0.001
24 *62:CLK 0.001
25 *55:CLK 0.001
26 *42:CLK 0.001
27 *38:CLK 0.001
28 *39:CLK 0.001
29 *59:CLK 0.001
30 *49:CLK 0.001
31 *41:CLK 0.001
32 *40:CLK 0.001
33 *53:CLK 0.001
34 *70:CLK 0.001
35 *35:35 0.008144291
36 *35:36 0.00957697
37 *35:37 0.01266627
38 *35:38 0.01409895
39 *35:39 0.02164637
40 *35:40 0.03627829
41 *35:41 0.01033353
42 *35:42 0.01176621
43 *35:43 0.008959197
44 *35:44 0.007446506
45 *35:45 0.008879184
46 *35:46 0.02522112
47 *35:47 0.02522166
48 *35:48 0.1301895
49 *35:49 0.1301895
50 *35:50 0.03327585
51 *35:51 0.03854837
52 *35:52 0.007970911
53 *35:53 0.009403589
54 *35:54 0.06889419
55 *35:55 0.06889419
56 *35:56 0.01009214
57 *35:57 0.02530348
58 *35:58 0.0104669
59 *35:59 0.16757
60 *35:60 0.007135667
61 *35:61 0.008568346
62 *35:62 0.01955918
63 *35:63 0.01955973
64 *35:64 0.1285702
65 *35:65 0.008237454
66 *35:66 0.009670134
67 *35:67 0.009454388
68 *35:68 0.009454934
69 *35:69 0.1545741
70 *35:70 0.0236322
71 *35:71 0.2118789
72 *35:72 0.008535312
73 *35:73 0.009967989
74 *35:74 0.1256842
75 *35:75 0.07940378
76 *35:76 0.1076541
77 *35:77 0.1076541
78 *35:78 0.1393938
79 *35:79 0.008514068
80 *35:80 0.009946747
81 *35:81 0.1861411
82 *35:82 0.007242794
83 *35:83 0.008675472
84 *35:84 0.1440685
85 *35:85 0.04473073
86 *35:86 0.04616341
87 *35:87 0.0133885
88 *35:88 0.01338905
89 *35:89 0.09031311
90 *35:90 0.006078363
91 *35:91 0.007511042
92 *35:92 0.01451848
93 *35:93 0.01451902
94 *35:94 0.1958001
95 *35:95 0.01216711
96 *35:96 0.007978742
97 *35:97 0.00935808
98 *35:98 0.009061261
99 *35:99 0.007423225
100 *35:100 0.1166059
101 *35:101 0.1723014
102 *35:102 0.171861
103 *35:103 0.003665285
104 *35:104 0.01740734
105 *35:105 0.02889885
106 *35:106 0.01716216
107 *35:107 0.007242948
108 *35:108 0.008068799
109 *35:109 0.008069345
110 *35:110 0.1245428
111 *35:111 0.007720531
112 *35:112 0.00915321
113 *35:113 0.007994378
114 *35:114 0.007994925
115 *35:115 0.2240238
116 *35:116 0.007774183
117 *35:117 0.00920686
118 *35:118 0.007243244
119 *35:119 0.008510612
120 *35:120 0.009943291
121 *35:121 0.007892942
122 *35:122 0.008393016
123 *35:123 0.0234112
124 *35:124 0.02311438
125 *35:125 0.01058709
126 *35:126 0.01104872
127 *35:127 0.01182126
128 *35:128 0.05366104
129 *35:129 0.05336422
130 *35:130 0.006304833
131 *35:131 0.06566812
132 *35:132 0.01179042
133 *35:133 0.007549075
134 *35:134 0.008981753
135 *35:135 0.00704653
136 *35:136 0.08773196
137 *35:137 0.008768935
138 *35:138 0.009452209
139 *35:139 0.009155388
140 *35:140 0.008319083
141 *35:141 0.008319629
142 *35:142 0.1409727
143 *35:143 0.008194598
144 *35:144 0.01033637
145 *35:145 0.01003955
146 *35:146 0.009023714
147 *35:147 0.00902426
148 *35:148 0.2207241
149 *35:149 0.008891486
150 *35:150 0.01004001